data_bew_v1-4c_Co_pw_v2-4c_Co_pw_2b_linear
_audit_creation_date              2020-09-04
_audit_creation_method            'tobacco_3.0'
_symmetry_space_group_name_H-M    'P1'
_symmetry_Int_Tables_number       1
_symmetry_cell_setting            triclinic
loop_
_symmetry_equiv_pos_as_xyz
  x,y,z
_cell_length_a                    28.18907164236095
_cell_length_b                    25.162887034696965
_cell_length_c                    31.648980108915623
_cell_angle_alpha                 89.99999999155452
_cell_angle_beta                  90.00000012993866
_cell_angle_gamma                 89.99871342775505
loop_
_atom_site_label
_atom_site_type_symbol
_atom_site_fract_x
_atom_site_fract_y
_atom_site_fract_z
_atom_site_charge
Co1       Co    0.0001124664   -0.0000919854    0.0351678975          0.1113
Co2       Co   -0.0001074016    0.0001031131   -0.0351890604             0.0
O3         O    0.0457612610   -0.0511381077    0.0355333668          0.1042
O4         O    0.0452479904   -0.0508534546   -0.0347241248          -0.007
O5         O   -0.0455780422    0.0509932683    0.0354339042          0.1034
O6         O   -0.0454352740    0.0510019633   -0.0348301211         -0.0078
C7         C    0.0615798690   -0.0690092131    0.0025433908          0.0521
C8         C   -0.0615767562    0.0689831051    0.0025351084          0.0512
O9         O   -0.0452253985   -0.0510196697    0.0347663656          0.1026
O10        O   -0.0457805441   -0.0509520963   -0.0354945624         -0.0086
O11        O    0.0454462500    0.0508363400    0.0347845763          0.1027
O12        O    0.0455716572    0.0511693737   -0.0354775735         -0.0085
C13        C    0.0615774859    0.0690056035   -0.0025355888          0.0436
C14        C   -0.0615805986   -0.0689794956   -0.0025429104          0.0435
Co15      Co    0.2571085350    0.4999611115   -0.0351528572          0.1113
Co16      Co    0.2555661401    0.5000018381    0.0351911236             0.0
O17        O    0.3216048335    0.4998926634   -0.0345991701          0.1042
O18        O    0.3198002716    0.5001024907    0.0356415884          -0.007
O19        O    0.1925693912    0.5000348954   -0.0363387120          0.1034
O20        O    0.1914026907    0.4999201434    0.0339176848         -0.0078
C21        C    0.3434747375    0.4999998723   -0.0012932856          0.0521
C22        C    0.1693136626    0.4999906263   -0.0037671433          0.0512
O23        O    0.2571892297    0.5718874660   -0.0347530125          0.1026
O24        O    0.2554920042    0.5722839604    0.0354927050         -0.0086
O25        O    0.2570104517    0.4280375871   -0.0347679962          0.1027
O26        O    0.2556268139    0.4277072530    0.0354834418         -0.0085
C27        C    0.2562777636    0.4024137843    0.0025475333          0.0436
C28        C    0.2562908309    0.5975453747    0.0025472051          0.0435
Co29      Co    0.7428852146    0.4999815489    1.0351378347          0.1113
Co30      Co    0.7444276424    0.5000223574    0.9647938546             0.0
O31        O    0.6783889178    0.4999146311    1.0345841229          0.1042
O32        O    0.6801935090    0.5001245340    0.9643433653          -0.007
O33        O    0.8074243562    0.5000538003    1.0363237141 0.10310000000000001
O34        O    0.8085910929    0.4999391390    0.9660673177         -0.0078
C35        C    0.6565190275    0.5000224148    1.0012782303          0.0521
C36        C    0.8306801014    0.5000090346    1.0037521542          0.0512
O37        O    0.7428029957    0.5719079060    1.0347380666          0.1026
O38        O    0.7445002466    0.5723044785    0.9644923501         -0.0086
O39        O    0.7429848223    0.4280580228    1.0347528972          0.1027
O40        O    0.7443685009    0.4277277742    0.9645014594         -0.0085
C41        C    0.7437180714    0.4024342655    0.9974373407          0.0436
C42        C    0.7437008687    0.5975658563    0.9974378766          0.0435
C143       C    0.5522580410    0.4571764076    0.0179060499         -0.0228
C144       C    0.6018217271    0.4572347209    0.0181507973          -0.019
C145       C    0.6268426631    0.5000202778    0.0010344525         -0.0082
C146       C    0.6021795527    0.5426899765   -0.0165630061         -0.0008
C147       C    0.5526307118    0.5425712824   -0.0174187232         -0.0036
C148       C    0.5266276551    0.4998194667   -0.0000000652          -0.015
C149       C    0.4734049729    0.4998285477   -0.0004475872         -0.0188
C150       C    0.4478874509    0.5295164485   -0.0307760485          0.0128
C151       C    0.3983038179    0.5292755556   -0.0311317641          0.0092
C152       C    0.3731511019    0.5000020093   -0.0010495078         -0.0264
C153       C    0.3977145922    0.4706622653    0.0292595751         -0.0581
C154       C    0.4472882953    0.4701810264    0.0294947195         -0.0541
H155       H    0.5345054019    0.4229953886    0.0311506425         -0.0306
H156       H    0.6207923050    0.4239558459    0.0316177496         -0.0244
H157       H    0.6213111587    0.5761458889   -0.0297014775          0.0073
H158       H    0.5350545761    0.5766513109   -0.0309866194          0.0017
H159       H    0.4657788379    0.5523564493   -0.0548607972          0.0413
H160       H    0.3794792271    0.5518749443   -0.0549181738          0.0344
H161       H    0.3784545749    0.4481503043    0.0528140350         -0.0861
H162       H    0.4647198852    0.4473432085    0.0538698558         -0.0801
C123       C    0.0519009467    0.4578918087   -0.0197413094         -0.0228
C124       C    0.1014481571    0.4580892928   -0.0208956863          -0.019
C125       C    0.1268086561    0.4999929369   -0.0028233272         -0.0082
C126       C    0.1024944530    0.5419130913    0.0162372340         -0.0008
C127       C    0.0529451391    0.5423206755    0.0170116964         -0.0036
C128       C    0.0266114476    0.5001115117   -0.0008439889          -0.015
C129       C   -0.0265969933    0.5001323758    0.0003402853         -0.0188
C130       C   -0.0523359990    0.5481285467    0.0037726398          0.0128
C131       C   -0.1019094118    0.5479452944    0.0047452777          0.0092
C132       C   -0.1268148920    0.5000067240    0.0028083382         -0.0264
C133       C   -0.1020234921    0.4522163933   -0.0003792644         -0.0581
C134       C   -0.0524765412    0.4521238327   -0.0018956013         -0.0541
H135       H    0.0338648342    0.4248832186   -0.0344778918         -0.0306
H136       H    0.1201400728    0.4256620030   -0.0358974834         -0.0244
H137       H    0.1218981451    0.5744190866    0.0305169302          0.0073
H138       H    0.0356592625    0.5753110044    0.0324491207          0.0017
H139       H   -0.0346525687    0.5861582397    0.0049891757          0.0413
H140       H   -0.1209210023    0.5852175847    0.0069532059          0.0344
H141       H   -0.1210825297    0.4149117891   -0.0016372326         -0.0861
H142       H   -0.0348464654    0.4140917838   -0.0038963801         -0.0801
C103       C   -0.2232988597    0.2586200859   -0.0053582542         -0.0228
C104       C   -0.2503379803    0.3051502904   -0.0059313296          -0.019
C105       C   -0.2283615669    0.3546179856   -0.0018316488         -0.0082
C106       C   -0.1792448142    0.3574709950    0.0030794683         -0.0008
C107       C   -0.1520594806    0.3110735921    0.0042421664         -0.0036
C108       C   -0.1735744852    0.2606264418   -0.0001438898          -0.015
C109       C   -0.1444293056    0.2107428920    0.0006249873         -0.0188
C110       C   -0.0998780998    0.2093040995    0.0210605299          0.0128
C111       C   -0.0729207975    0.1626894153    0.0217881354          0.0092
C112       C   -0.0894971179    0.1167993849    0.0018040979         -0.0264
C113       C   -0.1332774566    0.1175238651   -0.0187029031         -0.0581
C114       C   -0.1606984548    0.1637912684   -0.0191183586         -0.0541
H115       H   -0.2419356328    0.2213067841   -0.0082453531         -0.0306
H116       H   -0.2884178922    0.3027396543   -0.0095182008         -0.0244
H117       H   -0.1619034825    0.3956847405    0.0060577266          0.0073
H118       H   -0.1141432025    0.3152265738    0.0076937445          0.0017
H119       H   -0.0858027997    0.2436305940    0.0372397698          0.0413
H120       H   -0.0391086888    0.1623291978    0.0379963995          0.0344
H121       H   -0.1462056283    0.0822084292   -0.0344660910         -0.0861
H122       H   -0.1941089999    0.1625774258   -0.0358039372         -0.0801
C83        C   -0.0946792139   -0.2125999869    0.0032692915         -0.0228
C84        C   -0.0676331725   -0.1660709301    0.0031316694          -0.019
C85        C   -0.0894972521   -0.1167866443   -0.0025456649         -0.0082
C86        C   -0.1385037316   -0.1141251748   -0.0083231415         -0.0008
C87        C   -0.1656838106   -0.1605445500   -0.0087804201         -0.0036
C88        C   -0.1442874202   -0.2107965983   -0.0028001911          -0.015
C89        C   -0.1734368266   -0.2606849545   -0.0028096122         -0.0188
C90        C   -0.2175624683   -0.2629205828   -0.0239210557          0.0128
C91        C   -0.2445235799   -0.3095401257   -0.0239344440          0.0092
C92        C   -0.2283824778   -0.3546269950   -0.0025593688         -0.0264
C93        C   -0.1850293951   -0.3531025086    0.0186286035         -0.0581
C94        C   -0.1575984400   -0.3068423056    0.0183461727         -0.0541
H95        H   -0.0761233100   -0.2497830531    0.0073800550         -0.0306
H96        H   -0.0296343304   -0.1683416020    0.0073952794         -0.0244
H97        H   -0.1557620932   -0.0760457167   -0.0125261893          0.0073
H98        H   -0.2035209512   -0.1565270899   -0.0129492325          0.0017
H99        H   -0.2312867107   -0.2292429414   -0.0411672783          0.0413
H100       H   -0.2779980216   -0.3105327835   -0.0406733167          0.0344
H101       H   -0.1724440549   -0.3877848407    0.0354648292         -0.0861
H102       H   -0.1245360622   -0.3074042621    0.0355944266         -0.0801
C63        C    0.1931078865   -0.2808905503    0.0403860726         -0.0228
C64        C    0.2201094902   -0.3274535229    0.0402939611          -0.019
C65        C    0.2283788478   -0.3546549400    0.0025466583         -0.0082
C66        C    0.2093559876   -0.3353419541   -0.0351395663         -0.0008
C67        C    0.1818001126   -0.2891965627   -0.0351951458         -0.0036
C68        C    0.1732794708   -0.2608687987    0.0026247897          -0.015
C69        C    0.1441357612   -0.2109748010    0.0026112148         -0.0188
C70        C    0.1101648856   -0.2012943828   -0.0293068719          0.0128
C71        C    0.0830098354   -0.1548155986   -0.0291120866          0.0092
C72        C    0.0894918520   -0.1168088983    0.0025439376         -0.0264
C73        C    0.1230123527   -0.1255420477    0.0341957113         -0.0581
C74        C    0.1498832725   -0.1722140008    0.0345075016         -0.0541
H75        H    0.1873241265   -0.2615444831    0.0704005928         -0.0306
H76        H    0.2345717604   -0.3424323412    0.0696053394         -0.0244
H77        H    0.2158083646   -0.3560453417   -0.0645771013          0.0073
H78        H    0.1681896960   -0.2754588111   -0.0651462552          0.0017
H79        H    0.1036207185   -0.2297088160   -0.0541954378          0.0413
H80        H    0.0568469004   -0.1484624583   -0.0536318458          0.0344
H81        H    0.1284192036   -0.0961216795    0.0586726310         -0.0861
H82        H    0.1757656148   -0.1769161964    0.0593967896         -0.0801
C43        C    0.1768420658    0.2936513230   -0.0356387978         -0.0228
C44        C    0.2038926517    0.3401649792   -0.0347845711          -0.019
C45        C    0.2283635164    0.3546129363    0.0018187643         -0.0082
C46        C    0.2255289899    0.3225663499    0.0377009818         -0.0008
C47        C    0.1980427626    0.2763737207    0.0372468370         -0.0036
C48        C    0.1732613258    0.2608479024    0.0004281269          -0.015
C49        C    0.1441268323    0.2109574372   -0.0003179398         -0.0188
C50        C    0.1254310256    0.1891715180    0.0373139854          0.0128
C51        C    0.0981989764    0.1427631679    0.0364358905          0.0092
C52        C    0.0894917331    0.1168064516   -0.0018068198         -0.0264
C53        C    0.1078402816    0.1375648099   -0.0392492316         -0.0581
C54        C    0.1346066369    0.1843071142   -0.0386900620         -0.0541
H55        H    0.1582145964    0.2844128512   -0.0645311728         -0.0306
H56        H    0.2057862418    0.3650289602   -0.0625922497         -0.0244
H57        H    0.2445946109    0.3333422042    0.0661397782          0.0073
H58        H    0.1972571328    0.2525500711    0.0656026872          0.0017
H59        H    0.1308715455    0.2080764188    0.0675527351          0.0413
H60        H    0.0838206844    0.1270679002    0.0655909281          0.0344
H61        H    0.1014727829    0.1174867972   -0.0689554764         -0.0861
H62        H    0.1485020196    0.1985134562   -0.0684243621         -0.0801
loop_
_geom_bond_atom_site_label_1
_geom_bond_atom_site_label_2
_geom_bond_distance
_geom_bond_site_symmetry_2
_ccdc_geom_bond_type
Co1          O3 1.818       .   S
Co1          O5 1.820       .   S
O9          Co1 1.810       .   S
O11         Co1 1.810       .   S
Co2          O4 1.811       .   S
Co2          O6 1.809       .   S
Co2         O12 1.819       .   S
O10         Co2 1.819       .   S
C7           O3 1.221       .   S
O4           C7 1.346       .   D
C8           O5 1.222       .   S
C8           O6 1.345       .   D
C7          C72 1.437       .   S
C8         C112 1.438       .   S
C14          O9 1.346       .   D
C14         O10 1.221       .   S
C13         O11 1.346       .   D
C13         O12 1.221       .   S
C13         C52 1.438       .   S
C14         C85 1.438       .   S
Co15        O17 1.818       .   S
Co15        O19 1.820       .   S
O23        Co15 1.810       .   S
O25        Co15 1.810       .   S
Co16        O18 1.811       .   S
Co16        O20 1.809       .   S
Co16        O26 1.819       .   S
O24        Co16 1.819       .   S
C21         O17 1.221       .   S
O18         C21 1.346       .   D
C22         O19 1.222       .   S
C22         O20 1.345       .   D
C21        C152 0.837       .   S
C22        C125 1.199       .   S
C28         O23 1.346       .   D
C28         O24 1.221       .   S
C27         O25 1.346       .   D
C27         O26 1.221       .   S
C27         C45 1.438       .   S
C28         C65 1.437   1_565   S
Co29        O31 1.818       .   S
Co29        O33 1.820       .   S
O37        Co29 1.810       .   S
O39        Co29 1.810       .   S
Co30        O32 1.811       .   S
Co30        O34 1.809       .   S
Co30        O40 1.819       .   S
O38        Co30 1.819       .   S
C35         O31 1.221       .   S
O32         C35 1.346       .   D
C36         O33 1.222       .   S
C36         O34 1.345       .   D
C35        C145 0.837   1_556   S
C36        C132 1.199   1_656   S
C42         O37 1.346       .   D
C42         O38 1.221       .   S
C41         O39 1.346       .   D
C41         O40 1.221       .   S
C41        C105 1.438   1_656   S
C42         C92 1.438   1_666   S
C143       C144 1.397       .   D
C143       C148 1.412       .   S
C143       H155 1.080       .   S
C144       C145 1.396       .   S
C144       H156 1.081       .   S
C145       C146 1.395       .   D
C146       C147 1.397       .   S
C146       H157 1.083       .   S
C147       C148 1.414       .   D
C147       H158 1.079       .   S
C148       C149 1.500       .   S
C149       C150 1.413       .   D
C149       C154 1.413       .   S
C150       C151 1.398       .   S
C150       H159 1.080       .   S
C151       C152 1.397       .   D
C151       H160 1.082       .   S
C152       C153 1.395       .   S
C153       C154 1.398       .   D
C153       H161 1.082       .   S
C154       H162 1.080       .   S
C123       C124 1.397       .   D
C123       C128 1.412       .   S
C123       H135 1.080       .   S
C124       C125 1.396       .   S
C124       H136 1.081       .   S
C125       C126 1.395       .   D
C126       C127 1.397       .   S
C126       H137 1.083       .   S
C127       C128 1.414       .   D
C127       H138 1.079       .   S
C128       C129 1.500       .   S
C129       C130 1.413       .   D
C129       C134 1.413       .   S
C130       C131 1.398       .   S
C130       H139 1.080       .   S
C131       C132 1.397       .   D
C131       H140 1.082       .   S
C132       C133 1.395       .   S
C133       C134 1.398       .   D
C133       H141 1.082       .   S
C134       H142 1.080       .   S
C103       C104 1.397       .   D
C103       C108 1.412       .   S
C103       H115 1.080       .   S
C104       C105 1.396       .   S
C104       H116 1.081       .   S
C105       C106 1.395       .   D
C106       C107 1.397       .   S
C106       H117 1.083       .   S
C107       C108 1.414       .   D
C107       H118 1.079       .   S
C108       C109 1.500       .   S
C109       C110 1.413       .   D
C109       C114 1.413       .   S
C110       C111 1.398       .   S
C110       H119 1.080       .   S
C111       C112 1.397       .   D
C111       H120 1.082       .   S
C112       C113 1.395       .   S
C113       C114 1.398       .   D
C113       H121 1.082       .   S
C114       H122 1.080       .   S
C83         C84 1.397       .   D
C83         C88 1.412       .   S
C83         H95 1.080       .   S
C84         C85 1.396       .   S
C84         H96 1.081       .   S
C85         C86 1.395       .   D
C86         C87 1.397       .   S
C86         H97 1.083       .   S
C87         C88 1.414       .   D
C87         H98 1.079       .   S
C88         C89 1.500       .   S
C89         C90 1.413       .   D
C89         C94 1.413       .   S
C90         C91 1.398       .   S
C90         H99 1.080       .   S
C91         C92 1.397       .   D
C91        H100 1.082       .   S
C92         C93 1.395       .   S
C93         C94 1.398       .   D
C93        H101 1.082       .   S
C94        H102 1.080       .   S
C63         C64 1.397       .   D
C63         C68 1.412       .   S
C63         H75 1.080       .   S
C64         C65 1.396       .   S
C64         H76 1.081       .   S
C65         C66 1.395       .   D
C66         C67 1.397       .   S
C66         H77 1.083       .   S
C67         C68 1.414       .   D
C67         H78 1.079       .   S
C68         C69 1.500       .   S
C69         C70 1.413       .   D
C69         C74 1.413       .   S
C70         C71 1.398       .   S
C70         H79 1.080       .   S
C71         C72 1.397       .   D
C71         H80 1.082       .   S
C72         C73 1.395       .   S
C73         C74 1.398       .   D
C73         H81 1.082       .   S
C74         H82 1.080       .   S
C43         C44 1.397       .   D
C43         C48 1.412       .   S
C43         H55 1.080       .   S
C44         C45 1.396       .   S
C44         H56 1.081       .   S
C45         C46 1.395       .   D
C46         C47 1.397       .   S
C46         H57 1.083       .   S
C47         C48 1.414       .   D
C47         H58 1.079       .   S
C48         C49 1.500       .   S
C49         C50 1.413       .   D
C49         C54 1.413       .   S
C50         C51 1.398       .   S
C50         H59 1.080       .   S
C51         C52 1.397       .   D
C51         H60 1.082       .   S
C52         C53 1.395       .   S
C53         C54 1.398       .   D
C53         H61 1.082       .   S
C54         H62 1.080       .   S
