data_cpj_v1-4c_Cu_pw_N_v2-4c_Cu_pw_N_1B_2F_Ch
_audit_creation_date              2020-08-14
_audit_creation_method            'tobacco_3.0'
_symmetry_space_group_name_H-M    'P1'
_symmetry_Int_Tables_number       1
_symmetry_cell_setting            triclinic
loop_
_symmetry_equiv_pos_as_xyz
  x,y,z
_cell_length_a                    30.593562189166487
_cell_length_b                    30.592567998337994
_cell_length_c                    22.32437989129245
_cell_angle_alpha                 90.0
_cell_angle_beta                  90.0
_cell_angle_gamma                 90.00019877373782
loop_
_atom_site_label
_atom_site_type_symbol
_atom_site_fract_x
_atom_site_fract_y
_atom_site_fract_z
_atom_site_charge
Cu1       Cu    0.6702915252    0.3292978920   -0.0515308442         -0.0047
Cu2       Cu    0.6707077784    0.3297037086    0.0515298958          0.0039
O3         O    0.7318366658    0.3291308881   -0.0508860176         -0.0045
O4         O    0.7318775076    0.3298467588    0.0495590901          0.0035
O5         O    0.6087513618    0.3294734703   -0.0499780987         -0.0005
O6         O    0.6095217075    0.3295489282    0.0504651430          0.0084
C7         C    0.7525682759    0.3294244220   -0.0039263456         -0.0014
C8         C    0.5883990465    0.3295488894   -0.0027065182          0.0043
O9         O    0.6704541713    0.3904826230   -0.0504706727         -0.0958
O10        O    0.6705405665    0.3912451759    0.0499719668         -0.0879
O11        O    0.6701395741    0.2681235138   -0.0495588045          0.0908
O12        O    0.6708662535    0.2681534764    0.0508855253          0.0998
C13        C    0.6705671698    0.2474265075    0.0039261787          0.1272
C14        C    0.6704655077    0.4116001811    0.0027066851         -0.1232
N15        N    0.6709992358    0.3299966129    0.1251159383          0.0122
N16        N    0.6699988636    0.3290089405   -0.1251170852         -0.0087
Cu17      Cu    0.3154572251    0.3297339587    0.9484691553         -0.0047
Cu18      Cu    0.3158632158    0.3293177340    1.0515298942          0.0039
O19        O    0.3152964545    0.2681868002    0.9491139803         -0.0045
O20        O    0.3160124475    0.2681460327    1.0495590861          0.0035
O21        O    0.3156265736    0.3912761406    0.9500219024         -0.0005
O22        O    0.3157022485    0.3905057762    1.0504651439          0.0084
C23        C    0.3155921425    0.2474545474    0.9960736508         -0.0014
C24        C    0.3156999977    0.4116291244    0.9972934834          0.0043
O25        O    0.3766399855    0.3295779221    0.9495291650         -0.0958
O26        O    0.3774026638    0.3294916048    1.0499718024         -0.0879
O27        O    0.2542848227    0.3298793008    0.9504413568          0.0908
O28        O    0.2543149992    0.3291525993    1.0508856865          0.0998
C29        C    0.2335886076    0.3294494526    1.0039263947          0.1272
C30        C    0.3977569332    0.3295688675    1.0027064670         -0.1232
N31        N    0.3161562437    0.3290262975    1.1251159360          0.0122
N32        N    0.3151681498    0.3300265998    0.8748829151         -0.0087
Cu33      Cu    0.3158800686    0.6844975899    0.9484691545         -0.0047
Cu34      Cu    0.3154638620    0.6840919961    1.0515298965          0.0039
O35        O    0.2543349181    0.6846608817    0.9491140052         -0.0045
O36        O    0.2542941411    0.6839452502    1.0495591161          0.0035
O37        O    0.3774202428    0.6843257287    0.9500218761         -0.0005
O38        O    0.3766499232    0.6842504659    1.0504651184          0.0084
C39        C    0.2336033358    0.6843662098    0.9960736869         -0.0014
C40        C    0.3977725727    0.6842516514    0.9972934487          0.0043
O41        O    0.3157211143    0.6233128518    0.9495296026         -0.0958
O42        O    0.3156347867    0.6225505353    1.0499722455         -0.0879
O43        O    0.3160283290    0.7456719819    0.9504409178          0.0908
O44        O    0.3153016730    0.7456422171    1.0508852481          0.0998
C45        C    0.3155994960    0.7663690910    1.0039258077          0.1272
C46        C    0.3157110635    0.6021954210    1.0027070558         -0.1232
N47        N    0.3151724380    0.6837992513    1.1251159405          0.0122
N48        N    0.3161726970    0.6847863821    0.8748829121         -0.0087
Cu49      Cu    0.6703111647    0.6844707737    0.0515308647         -0.0047
Cu50      Cu    0.6707273031    0.6840649823   -0.0515298763          0.0039
O51        O    0.7318563195    0.6846327443    0.0508859499         -0.0045
O52        O    0.7318970210    0.6839169279   -0.0495591586          0.0035
O53        O    0.6087709848    0.6843002296    0.0499782073         -0.0005
O54        O    0.6095412471    0.6842247663   -0.0504650356          0.0084
C55        C    0.7525878675    0.6843375417    0.0039262479         -0.0014
C56        C    0.5884186268    0.6842265022    0.0027066560          0.0043
O57        O    0.6704683817    0.6232860302    0.0504706269         -0.0958
O58        O    0.6705546324    0.6225235280   -0.0499720135         -0.0879
O59        O    0.6701646396    0.7456451652    0.0495588912          0.0908
O60        O    0.6708912395    0.7456152009   -0.0508854397          0.0998
C61        C    0.6705940307    0.7663421672   -0.0039260703          0.1272
C62        C    0.6704778039    0.6021685019   -0.0027067537         -0.1232
N63        N    0.6710186783    0.6837720964   -0.1251159196          0.0122
N64        N    0.6700185850    0.6847597068    0.1251171064         -0.0087
Cu65      Cu    0.2376709400    0.0066820438   -0.0515314791         -0.0047
Cu66      Cu    0.2376666149    0.0071203491    0.0515305896          0.0039
O67        O    0.1942695073    0.0503188818   -0.0507729955         -0.0045
O68        O    0.1942968212    0.0502615545    0.0496768805          0.0035
O69        O    0.2810750931   -0.0369481490   -0.0500923704         -0.0005
O70        O    0.2810392647   -0.0360368095    0.0503486963          0.0084
C71        C    0.1796640186    0.0649661478   -0.0037726385         -0.0014
C72        C    0.2956790263   -0.0511940951   -0.0028602899          0.0043
O73        O    0.1943059195   -0.0364657211   -0.0496764872         -0.0958
O74        O    0.1942680023   -0.0365238613    0.0507716126         -0.0879
O75        O    0.2810380524    0.0498427293   -0.0503542440          0.0908
O76        O    0.2810652739    0.0507553710    0.0500872378          0.0998
C77        C    0.2956672988    0.0650047499    0.0028603146          0.1272
C78        C    0.1796660547   -0.0511687603    0.0037726927         -0.1232
N79        N    0.2376653672    0.0074270098    0.1251176109          0.0122
N80        N    0.2376702436    0.0063717355   -0.1251186497         -0.0087
Cu81      Cu    0.9933050213    0.2514510481   -0.0515314858         -0.0047
Cu82      Cu    0.9928668967    0.2514467793    0.0515305842          0.0039
O83        O    0.9496679979    0.2080495160   -0.0507728355         -0.0045
O84        O    0.9497254867    0.2080768711    0.0496770402          0.0035
O85        O    1.0369354032    0.2948553020   -0.0500925439         -0.0005
O86        O    1.0360242544    0.2948195419    0.0503485257          0.0084
C87        C    0.9350207439    0.1934440122   -0.0037724225         -0.0014
C88        C    1.0511815027    0.3094593017   -0.0028605181          0.0043
O89        O    1.0364497836    0.2080833233   -0.0496765908         -0.0958
O90        O    1.0365080830    0.2080454453    0.0507715089         -0.0879
O91        O    0.9501473436    0.2948208666   -0.0503541539          0.0908
O92        O    0.9492348950    0.2948481586    0.0500873307          0.0998
C93        C    0.9349864427    0.3094510661    0.0028604393          0.1272
C94        C    1.0511518902    0.1934425636    0.0037725559         -0.1232
N95        N    0.9925603649    0.2514455716    0.1251176064          0.0122
N96        N    0.9936152004    0.2514503116   -0.1251186574         -0.0087
Cu97      Cu    0.7484953325    0.0071062487   -0.0515314497         -0.0047
Cu98      Cu    0.7484996579    0.0066679439    0.0515306190          0.0039
O99        O    0.7918935297   -0.0365338075   -0.0507729913         -0.0045
O100       O    0.7918662521   -0.0364764774    0.0496768846          0.0035
O101       O    0.7050944152    0.0507396599   -0.0500923158 -0.0021000000000000003
O102       O    0.7051302079    0.0498283186    0.0503487509          0.0084
C103       C    0.8064979472   -0.0511821562   -0.0037726428         -0.0014
C104       C    0.6904915533    0.0649866893   -0.0028602268          0.0043
O105       O    0.7918635528    0.0502507978   -0.0496764844         -0.0958
O106       O    0.7919015062    0.0503089361    0.0507716154         -0.0879
O107       O    0.7051250203   -0.0360512209   -0.0503541881          0.0908
O108       O    0.7050977631   -0.0369638597    0.0500872938          0.0998
C109       C    0.6904946666   -0.0512121562    0.0028603796          0.1272
C110       C    0.8065045247    0.0649527519    0.0037726865         -0.1232
N111       N    0.7485009063    0.0063612837    0.1251176402          0.0122
N112       N    0.7484960285    0.0074165563   -0.1251186203         -0.0087
Cu113     Cu    0.9928632272    0.7622740951   -0.0515314524         -0.0047
Cu114     Cu    0.9933013380    0.7622783764    0.0515306177          0.0039
O115       O    1.0364997754    0.8056761049   -0.0507727973         -0.0045
O116       O    1.0364422735    0.8056487567    0.0496770785          0.0035
O117       O    0.9492333201    0.7188693638   -0.0500925153         -0.0005
O118       O    0.9501444551    0.7189051413    0.0503485545          0.0084
C119       C    1.0511468634    0.8202817725   -0.0037723827         -0.0014
C120       C    0.9349873742    0.7042652116   -0.0028604910          0.0043
O121       O    0.9497179899    0.8056413478   -0.0496765743         -0.0958
O122       O    0.9496596767    0.8056792327    0.0507715254         -0.0879
O123       O    1.0360213793    0.7189047490   -0.0503541036          0.0908
O124       O    1.0369338149    0.7188774746    0.0500873812          0.0998
C125       C    1.0511824333    0.7042747195    0.0028604955          0.1272
C126       C    0.9350157160    0.8202819505    0.0037725667         -0.1232
N127       N    0.9936078600    0.7622795930    0.1251176400          0.0122
N128       N    0.9925530579    0.7622748227   -0.1251186240         -0.0087
C279       C    0.8914367407   -0.1254683222    0.0538262144         -0.2079
C280       C    0.9035996831   -0.1482975860    0.0019281482         -0.0884
C281       C    0.8821390812   -0.1374368053   -0.0516627163          0.3002
C282       C    0.8500810892   -0.1054268659   -0.0538269050         -0.2079
C283       C    0.8379139801   -0.0826026196   -0.0019282243         -0.0885
C284       C    0.8593745820   -0.0934634003    0.0516626402          0.3003
F285       F    0.8494438996   -0.0729747185    0.1031496014         -0.1937
H286       H    0.9070240616   -0.1326475463    0.0962608407          0.1839
H287       H    0.8344896016   -0.0982526593   -0.0962609168           0.184
F288       F    0.8920697636   -0.1579254871   -0.1031496775         -0.1936
C269       C    0.8867756812    0.1438519599   -0.0548095762         -0.2079
C270       C    0.9036110999    0.1620404683   -0.0019283814         -0.0884
C271       C    0.8867922040    0.1465692862    0.0526399206          0.3002
C272       C    0.8547537157    0.1145397766    0.0548089543         -0.2079
C273       C    0.8379141687    0.0963562958    0.0019286454         -0.0885
C274       C    0.8547330646    0.1118274779   -0.0526396567          0.3003
F275       F    0.8401783918    0.0959313965   -0.1050999426         -0.1937
H276       H    0.8986800385    0.1546893116   -0.0980193602          0.1839
H277       H    0.8428452301    0.1037074524    0.0980196242           0.184
F278       F    0.9013468768    0.1624653676    0.1051002065         -0.1936
C259       C    0.1339687878    0.1137330850    0.0528432162         -0.2079
C260       C    0.1482576781    0.0963637608   -0.0019287118         -0.0884
C261       C    0.1289046195    0.1126482119   -0.0544362668          0.3002
C262       C    0.0968512857    0.1446806426   -0.0528426380         -0.2079
C263       C    0.0825582308    0.1620449507    0.0019286292         -0.0885
C264       C    0.1019112894    0.1457604996    0.0544361843          0.3003
F265       F    0.0898769998    0.1608459290    0.1085203299         -0.1937
H266       H    0.1478836848    0.1022504234    0.0945870083          0.1839
H267       H    0.0829322240    0.1561582881   -0.0945870908           0.184
F268       F    0.1409389090    0.0975627825   -0.1085204125         -0.1936
C249       C    0.0716007629   -0.1042428102    0.0070345548         -0.2079
C250       C    0.0825650440   -0.1482926456   -0.0019278913         -0.0884
C251       C    0.1270299082   -0.1585395774   -0.0088676379          0.3002
C252       C    0.1592125517   -0.1266439830   -0.0070253065         -0.2079
C253       C    0.1482478741   -0.0825943422    0.0019282013         -0.0885
C254       C    0.1037830099   -0.0723474104    0.0088679479          0.3003
F255       F    0.0908257286   -0.0308578426    0.0176162315         -0.1937
H256       H    0.0377608226   -0.0946740695    0.0126230550          0.1839
H257       H    0.1930520955   -0.1362129183   -0.0126227449           0.184
F258       F    0.1399871895   -0.2000291452   -0.0176159215         -0.1936
C239       C    0.6876877620    0.8808594607   -0.0532021636         -0.2079
C240       C    0.6855816791    0.9037464017    0.0011849686         -0.0884
C241       C    0.6783427154    0.8793195791    0.0535255300          0.3002
C242       C    0.6734073384    0.8342692351    0.0521363592         -0.2079
C243       C    0.6755070183    0.8113836094   -0.0022506593         -0.0885
C244       C    0.6827459820    0.8358104320   -0.0545912207          0.3003
F245       F    0.6851546920    0.8161204818   -0.1083079458         -0.1937
H246       H    0.6932091109    0.8982171089   -0.0948043460          0.1839
H247       H    0.6678795865    0.8169129021    0.0937386552           0.184
F248       F    0.6759340053    0.8990095292    0.1072422551         -0.1936
C229       C    0.8208114937    0.6843627998   -0.0515439456         -0.2079
C230       C    0.7976085742    0.6892561832    0.0022511130         -0.0884
C231       C    0.8217179827    0.6992819682    0.0540009808          0.3002
C232       C    0.8667636333    0.7042461648    0.0526069118         -0.2079
C233       C    0.8899666675    0.6993465702   -0.0011853561         -0.0885
C234       C    0.8658572590    0.6893207852   -0.0529352239          0.3003
F235       F    0.8858597945    0.6841555310   -0.1060664881         -0.1937
H236       H    0.8037058895    0.6766279915   -0.0926769086          0.1839
H237       H    0.8838693522    0.7119747619    0.0937426655           0.184
F238       F    0.8017154472    0.7044472224    0.1071322450         -0.1936
C219       C    0.4701758024    0.7235164642    1.0022938582         -0.2079
C220       C    0.4466348595    0.6842452057    0.9986808453         -0.0884
C221       C    0.4706962059    0.6451781608    0.9964397362          0.3002
C222       C    0.5160158778    0.6449621585    0.9977151579         -0.2079
C223       C    0.5395563400    0.6842329479    1.0013192594         -0.0885
C224       C    0.5154949936    0.7232999927    1.0035603685          0.3003
F225       F    0.5358141263    0.7621671844    1.0070533640         -0.1937
H226       H    0.4531205400    0.7545118581    1.0041278000          0.1839
H227       H    0.5330706595    0.6139662955    0.9958723047           0.184
F228       F    0.4503770732    0.6063109691    0.9929467406         -0.1936
C209       C    0.1608087837    0.6528263133    0.9951476767         -0.2079
C210       C    0.1885724871    0.6892806526    0.9977490198         -0.0884
C211       C    0.1689985284    0.7306891776    1.0020965100          0.3002
C212       C    0.1239764112    0.7358134338    1.0037952816         -0.2079
C213       C    0.0962132821    0.6993602767    1.0011851625         -0.0885
C214       C    0.1157872407    0.6579517517    0.9968376724          0.3003
F215       F    0.0912708010    0.6215495204    0.9941547239         -0.1937
H216       H    0.1743160907    0.6201938337    0.9917717294          0.1839
H217       H    0.1104696785    0.7684470956    1.0071624529           0.184
F218       F    0.1935149682    0.7670914089    1.0047794584         -0.1936
C199       C    0.3125565349    0.8363889642    1.0548940143         -0.2079
C200       C    0.3106817912    0.8114067037    1.0022505448         -0.0884
C201       C    0.3036676147    0.8337488112    0.9481336124          0.3002
C202       C    0.2987283899    0.8787873514    0.9461715718         -0.2079
C203       C    0.3005967311    0.9037682922    0.9988149731         -0.0885
C204       C    0.3076109076    0.8814261847    1.0529319055          0.3003
F205       F    0.3097909949    0.9031899088    1.1051432367         -0.1937
H206       H    0.3178993102    0.8206853001    1.0977550901          0.1839
H207       H    0.2933792121    0.8944896958    0.9033104277           0.184
F208       F    0.3014875274    0.8119850871    0.8959222812         -0.1936
C189       C    0.3060924645    0.1802587607    1.0524216536         -0.2079
C190       C    0.3106729939    0.2024103963    0.9977491775         -0.0884
C191       C    0.3100722095    0.1772535894    0.9451250712          0.3002
C192       C    0.3051604584    0.1322006425    0.9465129773         -0.2079
C193       C    0.3005864474    0.1100489009    1.0011847879         -0.0885
C194       C    0.3011872318    0.1352057079    1.0538088943          0.3003
F195       F    0.2969759840    0.1162437337    1.1078081357         -0.1937
H196       H    0.3063496353    0.1981952974    1.0942486800          0.1839
H197       H    0.3049098060    0.1142639999    0.9046852855           0.184
F198       F    0.3142834573    0.1962155636    0.8911258298         -0.1936
C179       C    0.1607825436    0.3609568205    1.0048523949         -0.2079
C180       C    0.1885624161    0.3245149937    1.0022510826         -0.0884
C181       C    0.1690068303    0.2830976550    0.9979035487          0.3002
C182       C    0.1239869919    0.2779531158    0.9962047059         -0.2079
C183       C    0.0962076942    0.3143937606    0.9988147941         -0.0885
C184       C    0.1157632800    0.3558110994    1.0031623280          0.3003
F185       F    0.0912306939    0.3922022812    1.0058452506         -0.1937
H186       H    0.1742753720    0.3935953818    1.0082283737          0.1839
H187       H    0.1104947383    0.2453133726    0.9928375030           0.184
F188       F    0.1935394165    0.2467064732    0.9952206261         -0.1936
C169       C    0.3181933182    0.4848443561    0.9455691433         -0.2079
C170       C    0.3157028326    0.4604500326    0.9986803788         -0.0884
C171       C    0.3132251903    0.4836641810    1.0528551704          0.3002
C172       C    0.3132113519    0.5289808303    1.0544297281         -0.2079
C173       C    0.3157082285    0.5533745129    1.0013201604         -0.0885
C174       C    0.3181858709    0.5301603644    0.9471453688          0.3003
F175       F    0.3206492372    0.5513240228    0.8944962834         -0.1937
H176       H    0.3201605852    0.4684612909    0.9026450810          0.1839
H177       H    0.3112504759    0.5453632546    1.0973554582           0.184
F178       F    0.3107618240    0.4625005226    1.1055042558         -0.1936
C159       C    0.5167599533    0.3368621154    0.0523017349         -0.2079
C160       C    0.5395387307    0.3295540097   -0.0013192058         -0.0884
C161       C    0.5147192264    0.3222933032   -0.0533053430          0.3002
C162       C    0.4693954039    0.3222621384   -0.0523023036         -0.2079
C163       C    0.4466172490    0.3295637472    0.0013191546         -0.0885
C164       C    0.4714367533    0.3368244537    0.0533052918          0.3003
F165       F    0.4518719061    0.3440582743    0.1062891542         -0.1937
H166       H    0.5344167683    0.3426215556    0.0936053934          0.1839
H167       H    0.4517392114    0.3164962013   -0.0936054446           0.184
F168       F    0.5342840737    0.3150594826   -0.1062892054         -0.1936
C149       C    0.6683526496    0.4831891278   -0.0531610318         -0.2079
C150       C    0.6704686579    0.4604221006    0.0013198100         -0.0884
C151       C    0.6725731044    0.4852548165    0.0541599643          0.3002
C152       C    0.6725841711    0.5305801609    0.0531602959         -0.2079
C153       C    0.6704746537    0.5533465823   -0.0013198785         -0.0885
C154       C    0.6683702072    0.5285138664   -0.0541600328          0.3003
F155       F    0.6662744941    0.5480669849   -0.1079951346         -0.1937
H156       H    0.6666845255    0.4655219001   -0.0951420384          0.1839
H157       H    0.6742587861    0.5482467829    0.0951419698           0.184
F158       F    0.6746688175    0.4657016980    0.1079950660         -0.1936
C139       C    0.8168086060    0.2882408591    0.0258362391         -0.2079
C140       C    0.7975995373    0.3244938527   -0.0022509780         -0.0884
C141       C    0.8256803836    0.3553841226   -0.0284358393          0.3002
C142       C    0.8707464300    0.3506305992   -0.0269091863         -0.2079
C143       C    0.8899551813    0.3143816354    0.0011850717         -0.0885
C144       C    0.8618743350    0.2834913655    0.0273699330          0.3003
F145       F    0.8779243283    0.2479352543    0.0550562146         -0.1937
H146       H    0.7965519185    0.2635119477    0.0466880729          0.1839
H147       H    0.8910028001    0.3753635404   -0.0477539792           0.184
F148       F    0.8096303902    0.3909402339   -0.0561221209         -0.1936
C129       C    0.6854461183    0.1787089969    0.0543159384         -0.2079
C130       C    0.6754859347    0.2023872938    0.0022508078         -0.0884
C131       C    0.6707296221    0.1787482955   -0.0512895750          0.3002
C132       C    0.6756065246    0.1337028626   -0.0532472531         -0.2079
C133       C    0.6855727885    0.1100259030   -0.0011848559         -0.0885
C134       C    0.6903291011    0.1336649014    0.0523555269          0.3003
F135       F    0.6998620306    0.1131916981    0.1039950181         -0.1937
H136       H    0.6894420096    0.1954416215    0.0967189988          0.1839
H137       H    0.6716167136    0.1169715754   -0.0956530469           0.184
F138       F    0.6611966925    0.1992214987   -0.1029290662         -0.1936
loop_
_geom_bond_atom_site_label_1
_geom_bond_atom_site_label_2
_geom_bond_distance
_geom_bond_site_symmetry_2
_ccdc_geom_bond_type
Cu1         Cu2 2.301       .   S
Cu1          O3 1.883       .   S
Cu1          O5 1.883       .   S
Cu1         N16 1.643       .   T
O9          Cu1 1.872       .   S
O11         Cu1 1.872       .   S
Cu2          O4 1.872       .   S
Cu2          O6 1.872       .   S
Cu2         N15 1.643       .   T
O10         Cu2 1.883       .   S
O12         Cu2 1.883       .   S
C7           O3 1.225       .   D
C7           O4 1.351       .   S
C8           O5 1.225       .   D
C8           O6 1.352       .   S
C7         C140 1.386       .   S
C8         C160 1.495       .   S
C14          O9 1.352       .   S
O10         C14 1.225       .   D
C13         O11 1.352       .   S
C13         O12 1.225       .   D
C13        C130 1.387       .   S
C14        C150 1.494       .   S
Cu17       Cu18 2.301       .   S
Cu17        O19 1.883       .   S
Cu17        O21 1.883       .   S
Cu17        N32 1.643       .   T
O25        Cu17 1.872       .   S
O27        Cu17 1.872       .   S
Cu18        O20 1.872       .   S
Cu18        O22 1.872       .   S
Cu18        N31 1.643       .   T
O26        Cu18 1.883       .   S
O28        Cu18 1.883       .   S
C23         O19 1.225       .   D
C23         O20 1.351       .   S
C24         O21 1.225       .   D
C24         O22 1.352       .   S
C23        C190 1.387       .   S
C24        C170 1.494       .   S
C30         O25 1.352       .   S
O26         C30 1.225       .   D
C29         O27 1.352       .   S
C29         O28 1.225       .   D
C29        C180 1.386       .   S
C30        C163 1.495   1_556   S
Cu33       Cu34 2.301       .   S
Cu33        O35 1.883       .   S
Cu33        O37 1.883       .   S
Cu33        N48 1.643       .   T
O41        Cu33 1.872       .   S
O43        Cu33 1.872       .   S
Cu34        O36 1.872       .   S
Cu34        O38 1.872       .   S
Cu34        N47 1.643       .   T
O42        Cu34 1.883       .   S
O44        Cu34 1.883       .   S
C39         O35 1.225       .   D
C39         O36 1.351       .   S
C40         O37 1.225       .   D
C40         O38 1.352       .   S
C39        C210 1.386       .   S
C40        C220 1.495       .   S
C46         O41 1.352       .   S
O42         C46 1.225       .   D
C45         O43 1.352       .   S
C45         O44 1.225       .   D
C45        C200 1.387       .   S
C46        C173 1.494       .   S
Cu49       Cu50 2.301       .   S
Cu49        O51 1.883       .   S
Cu49        O53 1.883       .   S
Cu49        N64 1.643       .   T
O57        Cu49 1.872       .   S
O59        Cu49 1.872       .   S
Cu50        O52 1.872       .   S
Cu50        O54 1.872       .   S
Cu50        N63 1.643       .   T
O58        Cu50 1.883       .   S
O60        Cu50 1.883       .   S
C55         O51 1.225       .   D
C55         O52 1.351       .   S
C56         O53 1.225       .   D
C56         O54 1.352       .   S
C55        C230 1.386       .   S
C56        C223 1.495   1_554   S
C62         O57 1.352       .   S
O58         C62 1.225       .   D
C61         O59 1.352       .   S
C61         O60 1.225       .   D
C61        C243 1.387       .   S
C62        C153 1.494       .   S
Cu65       Cu66 2.301       .   S
Cu65        O67 1.883       .   S
Cu65        O69 1.883       .   S
Cu65        N80 1.643       .   T
O73        Cu65 1.872       .   S
O75        Cu65 1.872       .   S
Cu66        O68 1.872       .   S
Cu66        O70 1.872       .   S
Cu66        N79 1.643       .   T
O74        Cu66 1.883       .   S
O76        Cu66 1.883       .   S
C71         O67 1.225       .   D
C71         O68 1.351       .   S
C72         O69 1.225       .   D
C72         O70 1.352       .   S
C71        C260 1.359       .   S
C72        C203 1.387   1_544   S
C78         O73 1.352       .   S
O74         C78 1.225       .   D
C77         O75 1.352       .   S
C77         O76 1.225       .   D
C77        C193 1.387   1_554   S
C78        C253 1.360       .   S
Cu81       Cu82 2.301       .   S
Cu81        O83 1.883       .   S
Cu81        O85 1.883       .   S
Cu81        N96 1.643       .   T
O89        Cu81 1.872       .   S
O91        Cu81 1.872       .   S
Cu82        O84 1.872       .   S
Cu82        O86 1.872       .   S
Cu82        N95 1.643       .   T
O90        Cu82 1.883       .   S
O92        Cu82 1.883       .   S
C87         O83 1.225       .   D
C87         O84 1.351       .   S
C88         O85 1.225       .   D
C88         O86 1.352       .   S
C87        C270 1.359       .   S
C88        C183 1.386   1_654   S
C94         O89 1.352       .   S
O90         C94 1.225       .   D
C93         O91 1.352       .   S
C93         O92 1.225       .   D
C93        C143 1.386       .   S
C94        C263 1.359   1_655   S
Cu97       Cu98 2.301       .   S
Cu97        O99 1.883       .   S
Cu97       O101 1.883       .   S
Cu97       N112 1.643       .   T
O105       Cu97 1.872       .   S
O107       Cu97 1.872       .   S
Cu98       O100 1.872       .   S
Cu98       O102 1.872       .   S
Cu98       N111 1.643       .   T
O106       Cu98 1.883       .   S
O108       Cu98 1.883       .   S
C103        O99 1.225       .   D
C103       O100 1.351       .   S
C104       O101 1.225       .   D
C104       O102 1.352       .   S
C103       C283 1.360       .   S
C104       C133 1.387       .   S
C110       O105 1.352       .   S
O106       C110 1.225       .   D
C109       O107 1.352       .   S
C109       O108 1.225       .   D
C109       C240 1.387   1_545   S
C110       C273 1.359       .   S
Cu113     Cu114 2.301       .   S
Cu113      O115 1.883       .   S
Cu113      O117 1.883       .   S
Cu113      N128 1.643       .   T
O121      Cu113 1.872       .   S
O123      Cu113 1.872       .   S
Cu114      O116 1.872       .   S
Cu114      O118 1.872       .   S
Cu114      N127 1.643       .   T
O122      Cu114 1.883       .   S
O124      Cu114 1.883       .   S
C119       O115 1.225       .   D
C119       O116 1.351       .   S
C120       O117 1.225       .   D
C120       O118 1.352       .   S
C119       C250 1.360   1_665   S
C120       C233 1.386       .   S
C126       O121 1.352       .   S
O122       C126 1.225       .   D
C125       O123 1.352       .   S
C125       O124 1.225       .   D
C125       C213 1.386   1_654   S
C126       C280 1.360   1_565   S
C279       C280 1.403       .   A
C279       C284 1.387       .   A
C279       H286 1.083       .   S
C280       C281 1.404       .   A
C281       C282 1.387       .   A
C281       F288 1.344       .   S
C282       C283 1.403       .   A
C282       H287 1.083       .   S
C283       C284 1.404       .   A
C284       F285 1.344       .   S
C269       C270 1.403       .   A
C269       C274 1.387       .   A
C269       H276 1.083       .   S
C270       C271 1.404       .   A
C271       C272 1.387       .   A
C271       F278 1.344       .   S
C272       C273 1.403       .   A
C272       H277 1.083       .   S
C273       C274 1.404       .   A
C274       F275 1.344       .   S
C259       C260 1.403       .   A
C259       C264 1.387       .   A
C259       H266 1.083       .   S
C260       C261 1.404       .   A
C261       C262 1.387       .   A
C261       F268 1.344       .   S
C262       C263 1.403       .   A
C262       H267 1.083       .   S
C263       C264 1.404       .   A
C264       F265 1.344       .   S
C249       C250 1.403       .   A
C249       C254 1.387       .   A
C249       H256 1.083       .   S
C250       C251 1.404       .   A
C251       C252 1.387       .   A
C251       F258 1.344       .   S
C252       C253 1.403       .   A
C252       H257 1.083       .   S
C253       C254 1.404       .   A
C254       F255 1.344       .   S
C239       C240 1.403       .   A
C239       C244 1.387       .   A
C239       H246 1.083       .   S
C240       C241 1.404       .   A
C241       C242 1.387       .   A
C241       F248 1.344       .   S
C242       C243 1.403       .   A
C242       H247 1.083       .   S
C243       C244 1.404       .   A
C244       F245 1.344       .   S
C229       C230 1.403       .   A
C229       C234 1.387       .   A
C229       H236 1.083       .   S
C230       C231 1.404       .   A
C231       C232 1.387       .   A
C231       F238 1.344       .   S
C232       C233 1.403       .   A
C232       H237 1.083       .   S
C233       C234 1.404       .   A
C234       F235 1.344       .   S
C219       C220 1.403       .   A
C219       C224 1.387       .   A
C219       H226 1.083       .   S
C220       C221 1.404       .   A
C221       C222 1.387       .   A
C221       F228 1.344       .   S
C222       C223 1.403       .   A
C222       H227 1.083       .   S
C223       C224 1.404       .   A
C224       F225 1.344       .   S
C209       C210 1.403       .   A
C209       C214 1.387       .   A
C209       H216 1.083       .   S
C210       C211 1.404       .   A
C211       C212 1.387       .   A
C211       F218 1.344       .   S
C212       C213 1.403       .   A
C212       H217 1.083       .   S
C213       C214 1.404       .   A
C214       F215 1.344       .   S
C199       C200 1.403       .   A
C199       C204 1.387       .   A
C199       H206 1.083       .   S
C200       C201 1.404       .   A
C201       C202 1.387       .   A
C201       F208 1.344       .   S
C202       C203 1.403       .   A
C202       H207 1.083       .   S
C203       C204 1.404       .   A
C204       F205 1.344       .   S
C189       C190 1.403       .   A
C189       C194 1.387       .   A
C189       H196 1.083       .   S
C190       C191 1.404       .   A
C191       C192 1.387       .   A
C191       F198 1.344       .   S
C192       C193 1.403       .   A
C192       H197 1.083       .   S
C193       C194 1.404       .   A
C194       F195 1.344       .   S
C179       C180 1.403       .   A
C179       C184 1.387       .   A
C179       H186 1.083       .   S
C180       C181 1.404       .   A
C181       C182 1.387       .   A
C181       F188 1.344       .   S
C182       C183 1.403       .   A
C182       H187 1.083       .   S
C183       C184 1.404       .   A
C184       F185 1.344       .   S
C169       C170 1.403       .   A
C169       C174 1.387       .   A
C169       H176 1.083       .   S
C170       C171 1.404       .   A
C171       C172 1.387       .   A
C171       F178 1.344       .   S
C172       C173 1.403       .   A
C172       H177 1.083       .   S
C173       C174 1.404       .   A
C174       F175 1.344       .   S
C159       C160 1.403       .   A
C159       C164 1.387       .   A
C159       H166 1.083       .   S
C160       C161 1.404       .   A
C161       C162 1.387       .   A
C161       F168 1.344       .   S
C162       C163 1.403       .   A
C162       H167 1.083       .   S
C163       C164 1.404       .   A
C164       F165 1.344       .   S
C149       C150 1.403       .   A
C149       C154 1.387       .   A
C149       H156 1.083       .   S
C150       C151 1.404       .   A
C151       C152 1.387       .   A
C151       F158 1.344       .   S
C152       C153 1.403       .   A
C152       H157 1.083       .   S
C153       C154 1.404       .   A
C154       F155 1.344       .   S
C139       C140 1.403       .   A
C139       C144 1.387       .   A
C139       H146 1.083       .   S
C140       C141 1.404       .   A
C141       C142 1.387       .   A
C141       F148 1.344       .   S
C142       C143 1.403       .   A
C142       H147 1.083       .   S
C143       C144 1.404       .   A
C144       F145 1.344       .   S
C129       C130 1.403       .   A
C129       C134 1.387       .   A
C129       H136 1.083       .   S
C130       C131 1.404       .   A
C131       C132 1.387       .   A
C131       F138 1.344       .   S
C132       C133 1.403       .   A
C132       H137 1.083       .   S
C133       C134 1.404       .   A
C134       F135 1.344       .   S
